<?xml version="1.0" encoding="UTF-8"?>

<!-- generated on 2025-03-13 17:04:33 by Eclipse SUMO netedit Version 1.22.0
<neteditConfiguration xmlns:xsi="http://www.w3.org/2001/XMLSchema-instance" xsi:noNamespaceSchemaLocation="http://sumo.dlr.de/xsd/neteditConfiguration.xsd">

    <input>
        <sumocfg-file value="D:\program\SUMO1\HelloWorld\HelloWorld.sumocfg"/>
        <additional-files value=""/>
        <route-files value="D:\program\SUMO1\HelloWorld\HelloWorld.rou.xml"/>
        <sumo-net-file value="D:\program\SUMO1\HelloWorld\HelloWorld.net.xml"/>
    </input>

    <output>
        <output-file value="D:\program\SUMO1\HelloWorld\HelloWorld.net.xml"/>
    </output>

    <processing>
        <geometry.min-radius.fix.railways value="false"/>
        <geometry.max-grade.fix value="false"/>
        <offset.disable-normalization value="true"/>
        <lefthand value="0"/>
    </processing>

    <junctions>
        <no-internal-links value="false"/>
        <no-turnarounds value="true"/>
        <junctions.corner-detail value="5"/>
        <junctions.limit-turn-speed value="5.50"/>
        <rectangular-lane-cut value="0"/>
    </junctions>

    <pedestrian>
        <walkingareas value="0"/>
    </pedestrian>

</neteditConfiguration>
-->

<net version="1.20" junctionCornerDetail="5" limitTurnSpeed="5.50" xmlns:xsi="http://www.w3.org/2001/XMLSchema-instance" xsi:noNamespaceSchemaLocation="http://sumo.dlr.de/xsd/net_file.xsd">

    <location netOffset="0.00,0.00" convBoundary="-120.05,-116.90,126.23,114.96" origBoundary="-10000000000.00,-10000000000.00,10000000000.00,10000000000.00" projParameter="!"/>

    <type id="edgeType_0"/>

    <edge id=":J0_0" function="internal">
        <lane id=":J0_0_0" index="0" disallow="pedestrian" speed="6.74" length="5.34" shape="-7.78,13.95 -8.18,11.32 -9.31,9.44 -9.73,9.18"/>
    </edge>
    <edge id=":J0_1" function="internal">
        <lane id=":J0_1_0" index="0" disallow="pedestrian" speed="13.89" length="27.57" shape="-7.78,13.95 -8.00,-13.67"/>
        <lane id=":J0_1_1" index="1" disallow="pedestrian" speed="13.89" length="27.57" shape="-4.58,13.90 -4.80,-13.67"/>
        <lane id=":J0_1_2" index="2" disallow="pedestrian" speed="13.89" length="27.57" shape="-1.38,13.85 -1.60,-13.67"/>
    </edge>
    <edge id=":J0_4" function="internal">
        <lane id=":J0_4_0" index="0" disallow="pedestrian" speed="10.35" length="5.30" shape="-1.38,13.85 -0.71,8.59"/>
    </edge>
    <edge id=":J0_20" function="internal">
        <lane id=":J0_20_0" index="0" disallow="pedestrian" speed="6.74" length="4.27" shape="-9.73,9.18 -11.15,8.31 -13.72,7.91"/>
    </edge>
    <edge id=":J0_21" function="internal">
        <lane id=":J0_21_0" index="0" disallow="pedestrian" speed="10.35" length="19.49" shape="-0.71,8.59 -0.52,7.09 2.30,2.27 7.08,-0.62 13.83,-1.56"/>
    </edge>
    <edge id=":J0_5" function="internal">
        <lane id=":J0_5_0" index="0" disallow="pedestrian" speed="6.49" length="4.81" shape="13.80,8.04 11.33,8.39 9.57,9.44 9.44,9.67"/>
    </edge>
    <edge id=":J0_6" function="internal">
        <lane id=":J0_6_0" index="0" disallow="pedestrian" speed="13.89" length="27.51" shape="13.80,8.04 -13.72,7.91"/>
        <lane id=":J0_6_1" index="1" disallow="pedestrian" speed="13.89" length="27.51" shape="13.81,4.84 -13.70,4.71"/>
        <lane id=":J0_6_2" index="2" disallow="pedestrian" speed="13.89" length="27.51" shape="13.82,1.64 -13.68,1.51"/>
    </edge>
    <edge id=":J0_9" function="internal">
        <lane id=":J0_9_0" index="0" disallow="pedestrian" speed="10.42" length="5.13" shape="13.82,1.64 8.74,0.91"/>
    </edge>
    <edge id=":J0_22" function="internal">
        <lane id=":J0_22_0" index="0" disallow="pedestrian" speed="6.49" length="4.28" shape="9.44,9.67 8.54,11.21 8.22,13.69"/>
    </edge>
    <edge id=":J0_23" function="internal">
        <lane id=":J0_23_0" index="0" disallow="pedestrian" speed="10.42" length="19.63" shape="8.74,0.91 7.07,0.67 2.26,-2.21 -0.63,-6.99 -1.60,-13.67"/>
    </edge>
    <edge id=":J0_10" function="internal">
        <lane id=":J0_10_0" index="0" disallow="pedestrian" speed="6.60" length="5.05" shape="8.00,-13.67 8.37,-11.18 9.46,-9.40 9.85,-9.17"/>
    </edge>
    <edge id=":J0_11" function="internal">
        <lane id=":J0_11_0" index="0" disallow="pedestrian" speed="13.89" length="27.41" shape="8.00,-13.67 8.22,13.69"/>
        <lane id=":J0_11_1" index="1" disallow="pedestrian" speed="13.89" length="27.41" shape="4.80,-13.67 5.02,13.74"/>
        <lane id=":J0_11_2" index="2" disallow="pedestrian" speed="13.89" length="27.41" shape="1.60,-13.67 1.82,13.79"/>
    </edge>
    <edge id=":J0_14" function="internal">
        <lane id=":J0_14_0" index="0" disallow="pedestrian" speed="10.36" length="4.74" shape="1.60,-13.67 0.93,-8.97"/>
    </edge>
    <edge id=":J0_24" function="internal">
        <lane id=":J0_24_0" index="0" disallow="pedestrian" speed="6.60" length="4.25" shape="9.85,-9.17 11.29,-8.32 13.84,-7.96"/>
    </edge>
    <edge id=":J0_25" function="internal">
        <lane id=":J0_25_0" index="0" disallow="pedestrian" speed="10.36" length="19.86" shape="0.93,-8.97 0.65,-6.99 -2.22,-2.23 -6.99,0.60 -13.68,1.51"/>
    </edge>
    <edge id=":J0_15" function="internal">
        <lane id=":J0_15_0" index="0" disallow="pedestrian" speed="6.50" length="4.77" shape="-13.62,-8.09 -11.16,-8.42 -9.40,-9.46 -9.28,-9.67"/>
    </edge>
    <edge id=":J0_16" function="internal">
        <lane id=":J0_16_0" index="0" disallow="pedestrian" speed="13.89" length="27.47" shape="-13.62,-8.09 13.84,-7.96"/>
        <lane id=":J0_16_1" index="1" disallow="pedestrian" speed="13.89" length="27.47" shape="-13.64,-4.89 13.83,-4.76"/>
        <lane id=":J0_16_2" index="2" disallow="pedestrian" speed="13.89" length="27.47" shape="-13.66,-1.69 13.83,-1.56"/>
    </edge>
    <edge id=":J0_19" function="internal">
        <lane id=":J0_19_0" index="0" disallow="pedestrian" speed="10.52" length="4.92" shape="-13.66,-1.69 -8.79,-0.95"/>
    </edge>
    <edge id=":J0_26" function="internal">
        <lane id=":J0_26_0" index="0" disallow="pedestrian" speed="6.50" length="4.28" shape="-9.28,-9.67 -8.35,-11.21 -8.00,-13.67"/>
    </edge>
    <edge id=":J0_27" function="internal">
        <lane id=":J0_27_0" index="0" disallow="pedestrian" speed="10.52" length="19.92" shape="-8.79,-0.95 -6.98,-0.68 -2.17,2.23 0.76,7.06 1.82,13.79"/>
    </edge>
    <edge id=":J0_c0" function="crossing" crossingEdges="E0 -E0">
        <lane id=":J0_c0_0" index="0" allow="pedestrian" speed="2.78" length="19.20" width="4.00" shape="9.79,11.66 -9.41,11.98" outlineShape="9.82,13.66 -9.38,13.97 -9.52,12.62 -9.89,11.51 -10.50,10.64 -11.34,10.02 -9.44,9.98 9.76,9.66 11.87,9.98 11.56,10.08 10.78,10.64 10.23,11.42 9.91,12.43"/>
    </edge>
    <edge id=":J0_c1" function="crossing" crossingEdges="E1 -E1">
        <lane id=":J0_c1_0" index="0" allow="pedestrian" speed="2.78" length="19.20" width="4.00" shape="11.85,-9.57 11.80,9.63" outlineShape="13.85,-9.56 13.80,9.64 13.79,9.74 13.80,9.64 12.56,9.75 11.56,10.08 10.78,10.64 10.23,11.42 10.14,11.74 9.80,9.63 9.85,-9.57 10.00,-11.62 10.08,-11.39 10.66,-10.59 11.49,-10.02 12.55,-9.68"/>
    </edge>
    <edge id=":J0_c2" function="crossing" crossingEdges="E3 -E3">
        <lane id=":J0_c2_0" index="0" allow="pedestrian" speed="2.78" length="19.20" width="4.00" shape="-9.60,-11.67 9.60,-11.67" outlineShape="-9.60,-13.67 9.60,-13.67 9.70,-13.67 9.60,-13.67 9.72,-12.41 10.08,-11.39 10.66,-10.59 11.49,-10.02 11.70,-9.96 9.60,-9.67 -9.60,-9.67 -11.71,-10.01 -11.38,-10.12 -10.60,-10.67 -10.04,-11.45 -9.71,-12.45"/>
    </edge>
    <edge id=":J0_c3" function="crossing" crossingEdges="E2 -E2">
        <lane id=":J0_c3_0" index="0" allow="pedestrian" speed="2.78" length="19.20" width="4.00" shape="-11.73,9.53 -11.61,-9.67" outlineShape="-13.73,9.51 -13.61,-9.69 -12.38,-9.79 -11.38,-10.12 -10.60,-10.67 -10.04,-11.45 -9.93,-11.77 -9.61,-9.66 -9.73,9.54 -9.87,11.58 -10.50,10.64 -11.34,10.02 -12.42,9.65"/>
    </edge>
    <edge id=":J0_w0" function="walkingarea">
        <lane id=":J0_w0_0" index="0" allow="pedestrian" speed="2.78" length="3.65" width="4.00" shape="-13.73,9.51 -13.74,11.51 -11.37,14.01 -9.38,13.97 -9.52,12.62 -9.89,11.51 -10.50,10.64 -11.34,10.02 -12.42,9.65"/>
    </edge>
    <edge id=":J0_w1" function="walkingarea">
        <lane id=":J0_w1_0" index="0" allow="pedestrian" speed="2.78" length="3.30" width="4.00" shape="9.82,13.66 11.82,13.63 13.79,11.64 13.80,9.64 12.56,9.75 11.56,10.08 10.78,10.64 10.23,11.42 9.91,12.43"/>
    </edge>
    <edge id=":J0_w2" function="walkingarea">
        <lane id=":J0_w2_0" index="0" allow="pedestrian" speed="2.78" length="3.45" width="4.00" shape="13.85,-9.56 13.85,-11.56 11.60,-13.66 9.60,-13.67 9.72,-12.41 10.08,-11.39 10.66,-10.59 11.49,-10.02 12.55,-9.68"/>
    </edge>
    <edge id=":J0_w3" function="walkingarea">
        <lane id=":J0_w3_0" index="0" allow="pedestrian" speed="2.78" length="3.30" width="4.00" shape="-9.60,-13.67 -11.60,-13.67 -13.60,-11.69 -13.61,-9.69 -12.38,-9.79 -11.38,-10.12 -10.60,-10.67 -10.04,-11.45 -9.71,-12.45"/>
    </edge>
    <edge id=":J1_0" function="internal">
        <lane id=":J1_0_0" index="0" disallow="pedestrian" speed="13.89" length="27.07" shape="15.30,121.70 -11.75,121.87"/>
        <lane id=":J1_0_1" index="1" disallow="pedestrian" speed="13.89" length="27.07" shape="15.29,118.50 -11.78,118.67"/>
        <lane id=":J1_0_2" index="2" disallow="pedestrian" speed="13.89" length="27.07" shape="15.28,115.30 -11.81,115.47"/>
    </edge>
    <edge id=":J1_3" function="internal">
        <lane id=":J1_3_0" index="0" disallow="pedestrian" speed="10.93" length="5.79" shape="15.28,115.30 9.54,114.63"/>
        <lane id=":J1_3_1" index="1" disallow="pedestrian" speed="10.41" length="4.82" shape="15.28,115.30 10.51,114.62"/>
    </edge>
    <edge id=":J1_12" function="internal">
        <lane id=":J1_12_0" index="0" disallow="pedestrian" speed="10.93" length="21.31" shape="9.54,114.63 7.30,114.37 1.56,111.53 -1.93,106.79 -3.18,100.14"/>
        <lane id=":J1_12_1" index="0" disallow="pedestrian" speed="10.41" length="19.68" shape="10.51,114.62 8.70,114.36 3.96,111.51 1.07,106.76 0.02,100.09"/>
    </edge>
    <edge id=":J1_5" function="internal">
        <lane id=":J1_5_0" index="0" disallow="pedestrian" speed="6.58" length="4.87" shape="9.62,99.93 10.01,102.46 11.08,104.26 11.26,104.38"/>
    </edge>
    <edge id=":J1_6" function="internal">
        <lane id=":J1_6_0" index="0" disallow="pedestrian" speed="11.36" length="25.74" shape="6.42,99.98 5.39,108.09 2.02,113.90 -3.71,117.43 -7.79,118.06"/>
        <lane id=":J1_6_1" index="1" disallow="pedestrian" speed="10.36" length="20.56" shape="3.22,100.04 2.37,106.73 -0.42,111.53 -5.14,114.45 -7.82,114.86"/>
    </edge>
    <edge id=":J1_13" function="internal">
        <lane id=":J1_13_0" index="0" disallow="pedestrian" speed="6.58" length="4.30" shape="11.26,104.38 12.83,105.34 15.26,105.70"/>
    </edge>
    <edge id=":J1_14" function="internal">
        <lane id=":J1_14_0" index="0" disallow="pedestrian" speed="11.36" length="4.04" shape="-7.79,118.06 -11.78,118.67"/>
        <lane id=":J1_14_1" index="0" disallow="pedestrian" speed="10.36" length="4.04" shape="-7.82,114.86 -11.81,115.47"/>
    </edge>
    <edge id=":J1_8" function="internal">
        <lane id=":J1_8_0" index="0" disallow="pedestrian" speed="6.50" length="4.77" shape="-11.91,105.87 -9.46,105.49 -7.72,104.42 -7.60,104.21"/>
    </edge>
    <edge id=":J1_9" function="internal">
        <lane id=":J1_9_0" index="0" disallow="pedestrian" speed="13.89" length="27.15" shape="-11.91,105.87 15.26,105.70"/>
        <lane id=":J1_9_1" index="1" disallow="pedestrian" speed="13.89" length="27.15" shape="-11.88,109.07 15.27,108.90"/>
        <lane id=":J1_9_2" index="2" disallow="pedestrian" speed="13.89" length="27.15" shape="-11.85,112.27 15.28,112.10"/>
    </edge>
    <edge id=":J1_15" function="internal">
        <lane id=":J1_15_0" index="0" disallow="pedestrian" speed="6.50" length="4.28" shape="-7.60,104.21 -6.69,102.65 -6.38,100.19"/>
    </edge>
    <edge id=":J1_c0" function="crossing" crossingEdges="E6 -E6">
        <lane id=":J1_c0_0" index="0" allow="pedestrian" speed="2.78" length="19.20" width="4.00" shape="13.26,104.10 13.30,123.30" outlineShape="15.26,104.10 15.30,123.30 11.30,123.31 11.25,100.21 11.35,101.19 11.70,102.24 12.26,103.06 13.04,103.64 14.04,103.99"/>
    </edge>
    <edge id=":J1_c1" function="crossing" crossingEdges="-E0 E0">
        <lane id=":J1_c1_0" index="0" allow="pedestrian" speed="2.78" length="19.20" width="4.00" shape="-7.95,102.22 11.25,101.91" outlineShape="-7.98,100.22 11.22,99.91 11.35,101.19 11.70,102.24 12.26,103.06 13.04,103.64 13.33,103.74 11.28,103.91 -7.92,104.22 -10.03,103.91 -9.71,103.80 -8.93,103.24 -8.39,102.45 -8.07,101.44"/>
    </edge>
    <edge id=":J1_c2" function="crossing" crossingEdges="E8 -E8">
        <lane id=":J1_c2_0" index="0" allow="pedestrian" speed="2.78" length="19.20" width="4.00" shape="-9.73,123.45 -9.93,104.25" outlineShape="-11.73,123.47 -11.93,104.27 -10.70,104.15 -9.71,103.80 -8.93,103.24 -8.39,102.45 -8.29,102.12 -7.93,104.23 -7.73,123.43 -11.73,123.57 -11.71,125.47 15.31,125.30 15.30,123.30 11.30,123.31 -7.73,123.43"/>
    </edge>
    <edge id=":J1_w0" function="walkingarea">
        <lane id=":J1_w0_0" index="0" allow="pedestrian" speed="2.78" length="17.44" width="4.00" shape="-7.73,123.43 -11.73,123.47 -11.71,125.47 15.31,125.30 15.30,123.30 11.30,123.31"/>
    </edge>
    <edge id=":J1_w1" function="walkingarea">
        <lane id=":J1_w1_0" index="0" allow="pedestrian" speed="2.78" length="3.40" width="4.00" shape="15.26,104.10 15.25,102.10 13.22,99.87 11.22,99.91 11.35,101.19 11.70,102.24 12.26,103.06 13.04,103.64 14.04,103.99"/>
    </edge>
    <edge id=":J1_w2" function="walkingarea">
        <lane id=":J1_w2_0" index="0" allow="pedestrian" speed="2.78" length="3.30" width="4.00" shape="-7.98,100.22 -9.98,100.25 -11.95,102.27 -11.93,104.27 -10.70,104.15 -9.71,103.80 -8.93,103.24 -8.39,102.45 -8.07,101.44"/>
    </edge>
    <edge id=":J2_0" function="internal">
        <lane id=":J2_0_0" index="0" disallow="pedestrian" speed="13.89" length="27.27" shape="133.22,-13.10 132.89,14.19"/>
        <lane id=":J2_0_1" index="1" disallow="pedestrian" speed="13.89" length="27.27" shape="130.02,-13.13 129.69,14.14"/>
        <lane id=":J2_0_2" index="2" disallow="pedestrian" speed="13.89" length="27.27" shape="126.82,-13.16 126.49,14.10"/>
    </edge>
    <edge id=":J2_3" function="internal">
        <lane id=":J2_3_0" index="0" disallow="pedestrian" speed="10.92" length="6.07" shape="126.82,-13.16 126.05,-7.14"/>
        <lane id=":J2_3_1" index="1" disallow="pedestrian" speed="10.41" length="5.02" shape="126.82,-13.16 126.05,-8.19"/>
    </edge>
    <edge id=":J2_12" function="internal">
        <lane id=":J2_12_0" index="0" disallow="pedestrian" speed="10.92" length="21.12" shape="126.05,-7.14 125.79,-5.15 122.86,0.56 118.05,3.98 111.34,5.10"/>
        <lane id=":J2_12_1" index="0" disallow="pedestrian" speed="10.41" length="19.56" shape="126.05,-8.19 125.80,-6.55 122.88,-1.84 118.06,0.98 111.35,1.90"/>
    </edge>
    <edge id=":J2_5" function="internal">
        <lane id=":J2_5_0" index="0" disallow="pedestrian" speed="6.57" length="4.88" shape="111.38,-7.70 113.91,-8.04 115.73,-9.08 115.86,-9.27"/>
    </edge>
    <edge id=":J2_6" function="internal">
        <lane id=":J2_6_0" index="0" disallow="pedestrian" speed="11.35" length="25.85" shape="111.37,-4.50 119.48,-3.31 125.24,0.19 128.65,6.01 129.18,10.13"/>
        <lane id=":J2_6_1" index="1" disallow="pedestrian" speed="10.35" length="20.64" shape="111.36,-1.30 118.06,-0.32 122.82,2.57 125.63,7.38 125.98,10.09"/>
    </edge>
    <edge id=":J2_13" function="internal">
        <lane id=":J2_13_0" index="0" disallow="pedestrian" speed="6.57" length="4.30" shape="115.86,-9.27 116.84,-10.82 117.22,-13.26"/>
    </edge>
    <edge id=":J2_14" function="internal">
        <lane id=":J2_14_0" index="0" disallow="pedestrian" speed="11.35" length="4.04" shape="129.18,10.13 129.69,14.14"/>
        <lane id=":J2_14_1" index="0" disallow="pedestrian" speed="10.35" length="4.04" shape="125.98,10.09 126.49,14.10"/>
    </edge>
    <edge id=":J2_8" function="internal">
        <lane id=":J2_8_0" index="0" disallow="pedestrian" speed="6.49" length="4.79" shape="116.89,13.96 116.58,11.49 115.54,9.72 115.33,9.59"/>
    </edge>
    <edge id=":J2_9" function="internal">
        <lane id=":J2_9_0" index="0" disallow="pedestrian" speed="13.89" length="27.23" shape="116.89,13.96 117.22,-13.26"/>
        <lane id=":J2_9_1" index="1" disallow="pedestrian" speed="13.89" length="27.23" shape="120.09,14.01 120.42,-13.22"/>
        <lane id=":J2_9_2" index="2" disallow="pedestrian" speed="13.89" length="27.23" shape="123.29,14.05 123.62,-13.19"/>
    </edge>
    <edge id=":J2_15" function="internal">
        <lane id=":J2_15_0" index="0" disallow="pedestrian" speed="6.49" length="4.28" shape="115.33,9.59 113.80,8.66 111.33,8.30"/>
    </edge>
    <edge id=":J2_c0" function="crossing" crossingEdges="E4 -E4">
        <lane id=":J2_c0_0" index="0" allow="pedestrian" speed="2.78" length="19.20" width="4.00" shape="115.61,-11.27 134.80,-11.08" outlineShape="115.62,-13.27 134.82,-13.08 136.78,-9.06 136.82,-13.06 134.92,-13.08 134.78,-9.08 115.59,-9.27 113.47,-9.66 113.72,-9.73 114.54,-10.29 115.14,-11.06 115.50,-12.05"/>
    </edge>
    <edge id=":J2_c1" function="crossing" crossingEdges="-E1 E1">
        <lane id=":J2_c1_0" index="0" allow="pedestrian" speed="2.78" length="19.20" width="4.00" shape="113.33,9.91 113.38,-9.29" outlineShape="111.33,9.90 111.38,-9.30 112.67,-9.40 113.72,-9.73 114.54,-10.29 115.14,-11.06 115.24,-11.34 115.38,-9.29 115.33,9.91 114.98,12.02 114.88,11.70 114.33,10.92 113.56,10.36 112.56,10.02"/>
    </edge>
    <edge id=":J2_c2" function="crossing" crossingEdges="-E7 E7">
        <lane id=":J2_c2_0" index="0" allow="pedestrian" speed="2.78" length="19.20" width="4.00" shape="134.52,12.21 115.32,11.94" outlineShape="134.59,14.21 115.19,13.94 115.20,12.71 114.88,11.70 114.33,10.92 113.56,10.36 113.24,10.25 115.35,9.94 134.55,10.21 134.49,14.21 136.49,14.24 136.54,10.24"/>
    </edge>
    <edge id=":J2_w0" function="walkingarea">
        <lane id=":J2_w0_0" index="0" allow="pedestrian" speed="2.78" length="17.62" width="4.00" shape="134.55,10.21 134.49,14.21 136.49,14.24 136.82,-13.06 134.82,-13.08 134.78,-9.08"/>
    </edge>
    <edge id=":J2_w1" function="walkingarea">
        <lane id=":J2_w1_0" index="0" allow="pedestrian" speed="2.78" length="3.39" width="4.00" shape="115.62,-13.27 113.62,-13.29 111.39,-11.30 111.38,-9.30 112.67,-9.40 113.72,-9.73 114.54,-10.29 115.14,-11.06 115.50,-12.05"/>
    </edge>
    <edge id=":J2_w2" function="walkingarea">
        <lane id=":J2_w2_0" index="0" allow="pedestrian" speed="2.78" length="3.30" width="4.00" shape="111.33,9.90 111.32,11.90 113.29,13.91 115.29,13.94 115.20,12.71 114.88,11.70 114.33,10.92 113.56,10.36 112.56,10.02"/>
    </edge>
    <edge id=":J3_0" function="internal">
        <lane id=":J3_0_0" index="0" disallow="pedestrian" speed="13.89" length="27.48" shape="-127.91,13.12 -127.95,-14.42"/>
        <lane id=":J3_0_1" index="1" disallow="pedestrian" speed="13.89" length="27.48" shape="-124.71,13.09 -124.75,-14.40"/>
        <lane id=":J3_0_2" index="2" disallow="pedestrian" speed="13.89" length="27.48" shape="-121.51,13.06 -121.55,-14.37"/>
    </edge>
    <edge id=":J3_3" function="internal">
        <lane id=":J3_3_0" index="0" disallow="pedestrian" speed="10.87" length="6.44" shape="-121.51,13.06 -120.82,6.66"/>
        <lane id=":J3_3_1" index="1" disallow="pedestrian" speed="10.35" length="5.31" shape="-121.51,13.06 -120.81,7.79"/>
    </edge>
    <edge id=":J3_12" function="internal">
        <lane id=":J3_12_0" index="0" disallow="pedestrian" speed="10.87" length="20.97" shape="-120.82,6.66 -120.63,4.92 -117.78,-0.88 -112.99,-4.34 -106.23,-5.46"/>
        <lane id=":J3_12_1" index="0" disallow="pedestrian" speed="10.35" length="19.44" shape="-120.81,7.79 -120.62,6.32 -117.77,1.52 -112.98,-1.34 -106.25,-2.26"/>
    </edge>
    <edge id=":J3_5" function="internal">
        <lane id=":J3_5_0" index="0" disallow="pedestrian" speed="6.49" length="4.80" shape="-106.31,7.34 -108.78,7.67 -110.54,8.72 -110.67,8.95"/>
    </edge>
    <edge id=":J3_6" function="internal">
        <lane id=":J3_6_0" index="0" disallow="pedestrian" speed="11.39" length="25.80" shape="-106.29,4.14 -114.42,2.93 -120.20,-0.55 -123.65,-6.33 -124.20,-10.39"/>
        <lane id=":J3_6_1" index="1" disallow="pedestrian" speed="10.39" length="20.63" shape="-106.27,0.94 -113.00,-0.06 -117.79,-2.94 -120.64,-7.71 -121.00,-10.37"/>
    </edge>
    <edge id=":J3_13" function="internal">
        <lane id=":J3_13_0" index="0" disallow="pedestrian" speed="6.49" length="4.28" shape="-110.67,8.95 -111.58,10.49 -111.91,12.96"/>
    </edge>
    <edge id=":J3_14" function="internal">
        <lane id=":J3_14_0" index="0" disallow="pedestrian" speed="11.39" length="4.04" shape="-124.20,-10.39 -124.75,-14.40"/>
        <lane id=":J3_14_1" index="0" disallow="pedestrian" speed="10.39" length="4.04" shape="-121.00,-10.37 -121.55,-14.37"/>
    </edge>
    <edge id=":J3_8" function="internal">
        <lane id=":J3_8_0" index="0" disallow="pedestrian" speed="6.55" length="4.92" shape="-111.95,-14.30 -111.61,-11.85 -110.54,-10.09 -110.20,-9.89"/>
    </edge>
    <edge id=":J3_9" function="internal">
        <lane id=":J3_9_0" index="0" disallow="pedestrian" speed="13.89" length="27.32" shape="-111.95,-14.30 -111.91,12.96"/>
        <lane id=":J3_9_1" index="1" disallow="pedestrian" speed="13.89" length="27.32" shape="-115.15,-14.33 -115.11,12.99"/>
        <lane id=":J3_9_2" index="2" disallow="pedestrian" speed="13.89" length="27.32" shape="-118.35,-14.35 -118.31,13.02"/>
    </edge>
    <edge id=":J3_15" function="internal">
        <lane id=":J3_15_0" index="0" disallow="pedestrian" speed="6.55" length="4.25" shape="-110.20,-9.89 -108.74,-9.03 -106.21,-8.66"/>
    </edge>
    <edge id=":J3_c0" function="crossing" crossingEdges="-E9 E9">
        <lane id=":J3_c0_0" index="0" allow="pedestrian" speed="2.78" length="19.20" width="4.00" shape="-110.33,10.94 -129.53,11.14" outlineShape="-110.31,12.94 -129.51,13.14 -131.52,9.16 -131.51,13.16 -129.61,13.14 -129.55,9.14 -110.35,8.94 -108.24,9.27 -108.56,9.37 -109.33,9.93 -109.89,10.71 -110.21,11.71"/>
    </edge>
    <edge id=":J3_c1" function="crossing" crossingEdges="-E2 E2">
        <lane id=":J3_c1_0" index="0" allow="pedestrian" speed="2.78" length="19.20" width="4.00" shape="-108.20,-10.28 -108.32,8.92" outlineShape="-106.20,-10.26 -106.32,8.94 -107.55,9.04 -108.56,9.37 -109.33,9.93 -109.89,10.71 -109.99,11.02 -110.32,8.91 -110.20,-10.29 -110.00,-12.35 -109.90,-12.07 -109.33,-11.28 -108.52,-10.72 -107.48,-10.38"/>
    </edge>
    <edge id=":J3_c2" function="crossing" crossingEdges="E10 -E10">
        <lane id=":J3_c2_0" index="0" allow="pedestrian" speed="2.78" length="19.20" width="4.00" shape="-129.57,-12.43 -110.37,-12.29" outlineShape="-129.55,-14.43 -110.35,-14.29 -110.25,-14.29 -110.35,-14.29 -110.24,-13.07 -109.90,-12.07 -109.33,-11.28 -108.52,-10.72 -108.26,-10.64 -110.38,-10.29 -129.58,-10.43"/>
    </edge>
    <edge id=":J3_w0" function="walkingarea">
        <lane id=":J3_w0_0" index="0" allow="pedestrian" speed="2.78" length="17.80" width="4.00" shape="-129.58,-10.43 -129.55,-14.43 -131.55,-14.44 -131.51,13.16 -129.51,13.14 -129.55,9.14"/>
    </edge>
    <edge id=":J3_w1" function="walkingarea">
        <lane id=":J3_w1_0" index="0" allow="pedestrian" speed="2.78" length="3.30" width="4.00" shape="-110.31,12.94 -108.31,12.92 -106.33,10.94 -106.32,8.94 -107.55,9.04 -108.56,9.37 -109.33,9.93 -109.89,10.71 -110.21,11.71"/>
    </edge>
    <edge id=":J3_w2" function="walkingarea">
        <lane id=":J3_w2_0" index="0" allow="pedestrian" speed="2.78" length="3.38" width="4.00" shape="-106.20,-10.26 -106.19,-12.26 -108.35,-14.28 -110.35,-14.29 -110.24,-13.07 -109.90,-12.07 -109.33,-11.28 -108.52,-10.72 -107.48,-10.38"/>
    </edge>
    <edge id=":J4_0" function="internal">
        <lane id=":J4_0_0" index="0" disallow="pedestrian" speed="6.49" length="4.81" shape="13.70,-108.31 11.22,-108.00 9.45,-106.97 9.32,-106.75"/>
    </edge>
    <edge id=":J4_1" function="internal">
        <lane id=":J4_1_0" index="0" disallow="pedestrian" speed="13.89" length="27.30" shape="13.70,-108.31 -13.55,-108.60"/>
        <lane id=":J4_1_1" index="1" disallow="pedestrian" speed="13.89" length="27.30" shape="13.76,-111.51 -13.54,-111.80"/>
        <lane id=":J4_1_2" index="2" disallow="pedestrian" speed="13.89" length="27.30" shape="13.82,-114.71 -13.54,-115.00"/>
    </edge>
    <edge id=":J4_12" function="internal">
        <lane id=":J4_12_0" index="0" disallow="pedestrian" speed="6.49" length="4.28" shape="9.32,-106.75 8.39,-105.22 8.04,-102.75"/>
    </edge>
    <edge id=":J4_4" function="internal">
        <lane id=":J4_4_0" index="0" disallow="pedestrian" speed="13.89" length="27.45" shape="-13.51,-124.60 13.99,-124.31"/>
        <lane id=":J4_4_1" index="1" disallow="pedestrian" speed="13.89" length="27.45" shape="-13.52,-121.40 13.93,-121.11"/>
        <lane id=":J4_4_2" index="2" disallow="pedestrian" speed="13.89" length="27.45" shape="-13.53,-118.20 13.87,-117.91"/>
    </edge>
    <edge id=":J4_7" function="internal">
        <lane id=":J4_7_0" index="0" disallow="pedestrian" speed="10.92" length="6.34" shape="-13.53,-118.20 -7.23,-117.43"/>
        <lane id=":J4_7_1" index="1" disallow="pedestrian" speed="10.40" length="5.21" shape="-13.53,-118.20 -8.37,-117.44"/>
    </edge>
    <edge id=":J4_13" function="internal">
        <lane id=":J4_13_0" index="0" disallow="pedestrian" speed="10.92" length="20.94" shape="-7.23,-117.43 -5.49,-117.21 0.25,-114.31 3.69,-109.49 4.84,-102.75"/>
        <lane id=":J4_13_1" index="0" disallow="pedestrian" speed="10.40" length="19.46" shape="-8.37,-117.44 -6.89,-117.22 -2.15,-114.32 0.69,-109.49 1.64,-102.75"/>
    </edge>
    <edge id=":J4_9" function="internal">
        <lane id=":J4_9_0" index="0" disallow="pedestrian" speed="6.57" length="4.91" shape="-7.96,-102.76 -8.31,-105.31 -9.36,-107.13 -9.56,-107.25"/>
    </edge>
    <edge id=":J4_10" function="internal">
        <lane id=":J4_10_0" index="0" disallow="pedestrian" speed="11.35" length="25.96" shape="-4.76,-102.76 -3.59,-110.91 -0.09,-116.69 5.75,-120.09 9.92,-120.61"/>
        <lane id=":J4_10_1" index="1" disallow="pedestrian" speed="10.35" length="20.73" shape="-1.56,-102.75 -0.60,-109.49 2.30,-114.26 7.12,-117.07 9.86,-117.41"/>
    </edge>
    <edge id=":J4_14" function="internal">
        <lane id=":J4_14_0" index="0" disallow="pedestrian" speed="6.57" length="4.30" shape="-9.56,-107.25 -11.11,-108.23 -13.55,-108.60"/>
    </edge>
    <edge id=":J4_15" function="internal">
        <lane id=":J4_15_0" index="0" disallow="pedestrian" speed="11.35" length="4.04" shape="9.92,-120.61 13.93,-121.11"/>
        <lane id=":J4_15_1" index="0" disallow="pedestrian" speed="10.35" length="4.04" shape="9.86,-117.41 13.87,-117.91"/>
    </edge>
    <edge id=":J4_c0" function="crossing" crossingEdges="-E5 E5">
        <lane id=":J4_c0_0" index="0" allow="pedestrian" speed="2.78" length="19.20" width="4.00" shape="12.02,-125.95 11.67,-106.75" outlineShape="14.02,-125.91 13.67,-106.71 12.44,-106.62 11.43,-106.31 10.65,-105.76 10.08,-104.98 9.98,-104.67 9.67,-106.79 10.02,-125.98 14.02,-126.01 14.05,-127.91 10.05,-127.95"/>
    </edge>
    <edge id=":J4_c1" function="crossing" crossingEdges="-E11 E11">
        <lane id=":J4_c1_0" index="0" allow="pedestrian" speed="2.78" length="19.20" width="4.00" shape="-11.56,-106.99 -11.50,-126.19" outlineShape="-13.56,-107.00 -13.50,-126.20 -9.50,-128.16 -13.50,-128.20 -13.50,-126.30 -9.50,-126.19 -9.56,-106.99 -9.93,-104.87 -10.01,-105.11 -10.56,-105.93 -11.34,-106.52 -12.34,-106.88"/>
    </edge>
    <edge id=":J4_c2" function="crossing" crossingEdges="-E3 E3">
        <lane id=":J4_c2_0" index="0" allow="pedestrian" speed="2.78" length="19.20" width="4.00" shape="9.64,-104.75 -9.56,-104.76" outlineShape="9.64,-102.75 -9.56,-102.76 -9.66,-102.76 -9.56,-102.76 -9.68,-104.05 -10.01,-105.11 -10.56,-105.93 -11.34,-106.52 -11.61,-106.62 -9.56,-106.76 9.64,-106.75 11.75,-106.40 11.43,-106.31 10.65,-105.76 10.08,-104.98 9.75,-103.98"/>
    </edge>
    <edge id=":J4_w0" function="walkingarea">
        <lane id=":J4_w0_0" index="0" allow="pedestrian" speed="2.78" length="3.30" width="4.00" shape="9.64,-102.75 11.64,-102.75 13.64,-104.71 13.67,-106.71 12.44,-106.62 11.43,-106.31 10.65,-105.76 10.08,-104.98 9.75,-103.98"/>
    </edge>
    <edge id=":J4_w1" function="walkingarea">
        <lane id=":J4_w1_0" index="0" allow="pedestrian" speed="2.78" length="17.77" width="4.00" shape="10.02,-125.98 14.02,-125.91 14.05,-127.91 -13.50,-128.20 -13.50,-126.20 -9.50,-126.19"/>
    </edge>
    <edge id=":J4_w2" function="walkingarea">
        <lane id=":J4_w2_0" index="0" allow="pedestrian" speed="2.78" length="3.40" width="4.00" shape="-13.56,-107.00 -13.56,-105.00 -11.56,-102.76 -9.56,-102.76 -9.68,-104.05 -10.01,-105.11 -10.56,-105.93 -11.34,-106.52 -12.34,-106.88"/>
    </edge>
    <edge id=":J5_0" function="internal">
        <lane id=":J5_0_0" index="0" disallow="pedestrian" speed="11.72" length="31.43" shape="114.87,-122.50 123.36,-121.13 129.40,-117.37 132.98,-111.23 134.12,-102.70"/>
        <lane id=":J5_0_1" index="1" disallow="pedestrian" speed="10.75" length="26.30" shape="114.81,-119.30 121.92,-118.15 126.97,-115.01 129.97,-109.87 130.92,-102.74"/>
        <lane id=":J5_0_2" index="2" disallow="pedestrian" speed="9.69" length="21.16" shape="114.75,-116.10 120.47,-115.18 124.54,-112.65 126.95,-108.51 127.72,-102.77"/>
    </edge>