<?xml version="1.0" encoding="UTF-8"?>

<!-- generated on 2025-03-13 20:32:44 by Eclipse SUMO netedit Version 1.22.0
-->

<routes xmlns:xsi="http://www.w3.org/2001/XMLSchema-instance" xsi:noNamespaceSchemaLocation="http://sumo.dlr.de/xsd/routes_file.xsd">
    <!-- Vehicles, persons and containers (sorted by depart) -->
    <flow id="f_0" begin="0.00" fromJunction="J8" toJunction="J6" end="3600.00" period="30.00"/>
    <flow id="f_1" begin="0.00" fromJunction="J2" toJunction="J8" end="3600.00" period="40.00"/>
    <flow id="f_2" begin="0.00" fromJunction="J7" toJunction="J4" end="3600.00" period="30.00"/>
    <personFlow id="pf_0" begin="0.00" end="3600.00" period="30.00">
        <personTrip fromJunction="J7" to="-E6"/>
    </personFlow>
    <personFlow id="pf_1" begin="0.00" end="3600.00" period="30.00">
        <personTrip fromJunction="J5" toJunction="J7"/>
    </personFlow>
</routes>
