<?xml version="1.0" encoding="UTF-8"?>

<!-- generated on 2025-03-03 22:25:33 by Eclipse SUMO netedit Version 1.22.0
<neteditConfiguration xmlns:xsi="http://www.w3.org/2001/XMLSchema-instance" xsi:noNamespaceSchemaLocation="http://sumo.dlr.de/xsd/neteditConfiguration.xsd">

    <input>
        <sumocfg-file value="D:\program\SUMO\HelloWorld\HelloWorld.sumocfg"/>
        <route-files value="D:\program\SUMO\HelloWorld\HelloWorld.rou.xml"/>
        <sumo-net-file value="D:\program\SUMO\HelloWorld\HelloWorld.net.xml"/>
    </input>

    <output>
        <output-file value="D:\program\SUMO\HelloWorld\HelloWorld.net.xml"/>
    </output>

    <processing>
        <offset.disable-normalization value="true"/>
    </processing>

    <junctions>
        <no-turnarounds value="true"/>
    </junctions>

    <netedit>
        <new-network value="false"/>
    </netedit>

</neteditConfiguration>
-->

<net version="1.20" junctionCornerDetail="5" limitTurnSpeed="5.50" xmlns:xsi="http://www.w3.org/2001/XMLSchema-instance" xsi:noNamespaceSchemaLocation="http://sumo.dlr.de/xsd/net_file.xsd">

    <location netOffset="0.00,0.00" convBoundary="-69.04,3.72,59.47,4.36" origBoundary="10000000000.00,10000000000.00,-10000000000.00,-10000000000.00" projParameter="!"/>

    <edge id="-E1" from="J3" to="J2" priority="-1">
        <lane id="-E1_0" index="0" speed="13.89" length="128.51" shape="59.46,5.96 -69.05,5.32"/>
    </edge>
    <edge id="E1" from="J2" to="J3" priority="-1">
        <lane id="E1_0" index="0" speed="13.89" length="128.51" shape="-69.03,2.12 59.48,2.76"/>
    </edge>

    <junction id="J2" type="dead_end" x="-69.04" y="3.72" incLanes="-E1_0" intLanes="" shape="-69.04,3.72 -69.06,6.92 -69.04,3.72"/>
    <junction id="J3" type="dead_end" x="59.47" y="4.36" incLanes="E1_0" intLanes="" shape="59.47,4.36 59.48,1.16 59.47,4.36"/>

</net>
